cdfs/ieee300cdf.txt
TAPE
 13/05/91 CYME INTERNATIONAL    100.0 1991 S IEEE 300-BUS TEST SYSTEM
BUS DATA FOLLOWS                    300 ITEMS
   1  1            1  1  0 1.0284   5.95     90.0     49.0      0.0     0.0   115.0    0.0     0.0     0.0     0.0     0.0    0    1
   2  1            1  1  0 1.0354   7.74     56.0     15.0      0.0     0.0   115.0    0.0     0.0     0.0     0.0     0.0    0    2
   3  1            1  1  0 0.9971   6.64     20.0      0.0      0.0     0.0   230.0    0.0     0.0     0.0     0.0     0.0    0    3
   4  1            1  1  0 1.0308   4.71      0.0      0.0      0.0     0.0   345.0    0.0     0.0     0.0     0.0     0.0    0    4
   5  1            1  1  0 1.0191   4.68    353.0    130.0      0.0     0.0   115.0    0.0     0.0     0.0     0.0     0.0    0    5
   6  1            1  1  0 1.0312   6.99    120.0     41.0      0.0     0.0   115.0    0.0     0.0     0.0     0.0     0.0    0    6
   7  1            1  1  0 0.9934   6.19      0.0      0.0      0.0     0.0   230.0    0.0     0.0     0.0     0.0     0.0    0    7
   8  1            1  1  2 1.0153   2.40     58.0     14.0     -5.0     0.0   115.0 1.0153    10.0   -10.0     0.0     0.0    8    8
   9  1            1  1  0 1.0034   2.85     96.0     43.0      0.0     0.0   115.0    0.0     0.0     0.0     0.0     0.0    0    9
  10  1            1  1  2 1.0205   1.35    148.0     33.0     -5.0     0.0   230.0 1.0205    20.0   -20.0     0.0     0.0   10   10
  11  1            1  1  0 1.0057   2.46     83.0     21.0      0.0     0.0   115.0    0.0     0.0     0.0     0.0     0.0    0   11
  12  1            1  1  0 0.9974   5.21      0.0      0.0      0.0     0.0   230.0    0.0     0.0     0.0     0.0     0.0    0   12
  13  1            1  1  0 0.9977  -0.55     58.0     10.0      0.0     0.0   115.0    0.0     0.0     0.0     0.0     0.0    0   13
  14  1            1  1  0 0.9991  -4.81    160.0     60.0      0.0     0.0   115.0    0.0     0.0     0.0     0.0     0.0    0   14
  15  1            1  1  0 1.0343  -8.59    126.7     23.0      0.0     0.0   115.0    0.0     0.0     0.0     0.0     0.0    0   15
  16  1            1  1  0 1.0315  -2.65      0.0      0.0      0.0     0.0   345.0    0.0     0.0     0.0     0.0     0.0    0   16
  17  1            1  1  0 1.0649 -13.10    561.0    220.0      0.0     0.0   115.0    0.0     0.0     0.0     0.0     0.0    0   17
  19  1            1  1  0 0.9820   1.08      0.0      0.0      0.0     0.0   230.0    0.0     0.0     0.0     0.0     0.0    0   18
  20  1            1  1  2 1.0010  -2.46    595.0    120.0    -10.0     0.0   115.0 1.0010    20.0   -20.0     0.0     0.0   20   19
  21  1            1  1  0 0.9752   1.62     77.0      1.0      0.0     0.0   230.0    0.0     0.0     0.0     0.0     0.0    0   20
  22  1            1  1  0 0.9963  -1.97     81.0     23.0      0.0     0.0   115.0    0.0     0.0     0.0     0.0     0.0    0   21
  23  1            1  1  0 1.0501   3.94     21.0      7.0      0.0     0.0   115.0    0.0     0.0     0.0     0.0     0.0    0   22
  24  1            1  1  0 1.0057   6.02      0.0      0.0      0.0     0.0   230.0    0.0     0.0     0.0     0.0     0.0    0   23
  25  1            1  1  0 1.0234   1.44     45.0     12.0      0.0     0.0   115.0    0.0     0.0     0.0     0.0     0.0    0   24
  26  1            1  1  0 0.9986  -1.73     28.0      9.0      0.0     0.0   115.0    0.0     0.0     0.0     0.0     0.0    0   25
  27  1            1  1  0 0.9750  -4.90     69.0     13.0      0.0     0.0   115.0    0.0     0.0     0.0     0.0     0.0    0   26
  33  1            1  1  0 1.0244 -12.02     55.0      6.0      0.0     0.0   115.0    0.0     0.0     0.0     0.0     0.0    0   27
  34  1            1  1  0 1.0414  -7.94      0.0      0.0      0.0     0.0   345.0    0.0     0.0     0.0     0.0     0.0    0   28
  35  1            1  1  0 0.9757 -25.72      0.0      0.0      0.0     0.0   115.0    0.0     0.0     0.0     0.0     0.0    0   29
  36  1            1  1  0 1.0011 -22.59      0.0      0.0      0.0     0.0   230.0    0.0     0.0     0.0     0.0     0.0    0   30
  37  1            1  1  0 1.0201 -11.23     85.0     32.0      0.0     0.0   115.0    0.0     0.0     0.0     0.0     0.0    0   31
  38  1            1  1  0 1.0202 -12.56    155.0     18.0      0.0     0.0   115.0    0.0     0.0     0.0     0.0     0.0    0   32
  39  1            1  1  0 1.0535  -5.81      0.0      0.0      0.0     0.0   345.0    0.0     0.0     0.0     0.0     0.0    0   33
  40  1            1  1  0 1.0216 -12.78     46.0    -21.0      0.0     0.0   115.0    0.0     0.0     0.0     0.0     0.0    0   34
  41  1            1  1  0 1.0292 -10.45     86.0      0.0      0.0     0.0   115.0    0.0     0.0     0.0     0.0     0.0    0   35
  42  1            1  1  0 1.0448  -7.44      0.0      0.0      0.0     0.0   345.0    0.0     0.0     0.0     0.0     0.0    0   36
  43  1            1  1  0 1.0006 -16.79     39.0      9.0      0.0     0.0   115.0    0.0     0.0     0.0     0.0     0.0    0   37
  44  1            1  1  0 1.0086 -17.47    195.0     29.0      0.0     0.0   115.0    0.0     0.0     0.0     0.0     0.0    0   38
  45  1            1  1  0 1.0215 -14.74      0.0      0.0      0.0     0.0   230.0    0.0     0.0     0.0     0.0     0.0    0   39
  46  1            1  1  0 1.0344 -11.75      0.0      0.0      0.0     0.0   345.0    0.0     0.0     0.0     0.0     0.0    0   40
  47  1            1  1  0 0.9777 -23.17     58.0     11.8      0.0     0.0   115.0    0.0     0.0     0.0     0.0     0.0    0   41
  48  1            1  1  0 1.0019 -16.09     41.0     19.0      0.0     0.0   115.0    0.0     0.0     0.0     0.0     0.0    0   42
  49  1            1  1  0 1.0475  -2.95     92.0     26.0      0.0     0.0   115.0    0.0     0.0     0.0     0.0     0.0    0   43
  51  1            1  1  0 1.0253  -8.15     -5.0      5.0      0.0     0.0   115.0    0.0     0.0     0.0     0.0     0.0    0   44
  52  1            1  1  0 0.9979 -11.86     61.0     28.0      0.0     0.0   115.0    0.0     0.0     0.0     0.0     0.0    0   45
  53  1            1  1  0 0.9959 -17.60     69.0      3.0      0.0     0.0   115.0    0.0     0.0     0.0     0.0     0.0    0   46
  54  1            1  1  0 1.0050 -16.25     10.0      1.0      0.0     0.0   115.0    0.0     0.0     0.0     0.0     0.0    0   47
  55  1            1  1  0 1.0150 -12.21     22.0     10.0      0.0     0.0   115.0    0.0     0.0     0.0     0.0     0.0    0   48
  57  1            1  1  0 1.0335  -8.00     98.0     20.0      0.0     0.0   115.0    0.0     0.0     0.0     0.0     0.0    0   49
  58  1            1  1  0 0.9918  -5.99     14.0      1.0      0.0     0.0   115.0    0.0     0.0     0.0     0.0     0.0    0   50
  59  1            1  1  0 0.9789  -5.29    218.0    106.0      0.0     0.0   115.0    0.0     0.0     0.0     0.0     0.0    0   51
  60  1            1  1  0 1.0246  -9.56      0.0      0.0      0.0     0.0   230.0    0.0     0.0     0.0     0.0     0.0    0   52
  61  1            1  1  0 0.9906  -3.47    227.0    110.0      0.0     0.0   115.0    0.0     0.0     0.0     0.0     0.0    0   53
  62  1            1  1  0 1.0160  -1.10      0.0      0.0      0.0     0.0   230.0    0.0     0.0     0.0     0.0     0.0    0   54
  63  1            1  1  2 0.9583 -17.62     70.0     30.0      0.0     0.0   115.0 0.9583    25.0   -25.0     0.0     0.0   63   55
  64  1            1  1  0 0.9480 -12.97      0.0      0.0      0.0     0.0   230.0    0.0     0.0     0.0     0.0     0.0    0   56
  69  1            1  1  0 0.9630 -25.66      0.0      0.0      0.0     0.0   115.0    0.0     0.0     0.0     0.0     0.0    0   57
  70  1            1  1  0 0.9513 -35.16     56.0     20.0      0.0     0.0   115.0    0.0     0.0     0.0     0.0     0.0    0   58
  71  1            1  1  0 0.9793 -29.88    116.0     38.0      0.0     0.0   115.0    0.0     0.0     0.0     0.0     0.0    0   59
  72  1            1  1  0 0.9696 -27.48     57.0     19.0      0.0     0.0   115.0    0.0     0.0     0.0     0.0     0.0    0   60
  73  1            1  1  0 0.9775 -25.77    224.0     71.0      0.0     0.0   115.0    0.0     0.0     0.0     0.0     0.0    0   61
  74  1            1  1  0 0.9964 -22.00      0.0      0.0      0.0     0.0   230.0    0.0     0.0     0.0     0.0     0.0    0   62
  76  1            1  1  2 0.9632 -26.54    208.0    107.0      0.0     0.0   115.0 0.9632    35.0    12.0     0.0     0.0   76   63
  77  1            1  1  0 0.9837 -24.94     74.0     28.0      0.0     0.0   115.0    0.0     0.0     0.0     0.0     0.0    0   64
  78  1            1  1  0 0.9900 -24.05      0.0      0.0      0.0     0.0   115.0    0.0     0.0     0.0     0.0     0.0    0   65
  79  1            1  1  0 0.9820 -24.97     48.0     14.0      0.0     0.0   115.0    0.0     0.0     0.0     0.0     0.0    0   66
  80  1            1  1  0 0.9872 -24.97     28.0      7.0      0.0     0.0   115.0    0.0     0.0     0.0     0.0     0.0    0   67
  81  1            1  1  0 1.0340 -18.89      0.0      0.0      0.0     0.0   345.0    0.0     0.0     0.0     0.0     0.0    0   68
  84  1            1  1  2 1.0250 -17.16     37.0     13.0    375.0     0.0   115.0 1.0250   240.0  -240.0     0.0     0.0   84   69
  85  1            1  1  0 0.9872 -17.68      0.0      0.0      0.0     0.0   230.0    0.0     0.0     0.0     0.0     0.0    0   70
  86  1            1  1  0 0.9909 -14.19      0.0      0.0      0.0     0.0   230.0    0.0     0.0     0.0     0.0     0.0    0   71
  87  1            1  1  0 0.9921  -7.77      0.0      0.0      0.0     0.0   230.0    0.0     0.0     0.0     0.0     0.0    0   72
  88  1            1  1  0 1.0151 -20.96      0.0      0.0      0.0     0.0   230.0    0.0     0.0     0.0     0.0     0.0    0   73
  89  1            1  1  0 1.0317 -11.13     44.2      0.0      0.0     0.0   115.0    0.0     0.0     0.0     0.0     0.0    0   74
  90  1            1  1  0 1.0272 -11.23     66.0      0.0      0.0     0.0   115.0    0.0     0.0     0.0     0.0     0.0    0   75
  91  1            1  1  2 1.0520  -9.40     17.4      0.0    155.0     0.0   115.0 1.0520    96.0   -11.0     0.0     0.0   91   76
  92  1            1  1  2 1.0520  -6.20     15.8      0.0    290.0     0.0   115.0 1.0520   153.0  -153.0     0.0     0.0   92   77
  94  1            1  1  0 0.9930  -9.42     60.3      0.0      0.0     0.0   115.0    0.0     0.0     0.0     0.0     0.0    0   78
  97  1            1  1  0 1.0183 -13.24     39.9      0.0      0.0     0.0   115.0    0.0     0.0     0.0     0.0     0.0    0   79
  98  1            1  1  2 1.0000 -14.60     66.7      0.0     68.0     0.0   115.0 1.0000    56.0   -30.0     0.0     0.0   98   80
  99  1            1  1  0 0.9894 -20.27     83.5      0.0      0.0     0.0   115.0    0.0     0.0     0.0     0.0     0.0    0   81
 100  1            1  1  0 1.0060 -14.45      0.0      0.0      0.0     0.0   115.0    0.0     0.0     0.0     0.0     0.0    0   82
 102  1            1  1  0 1.0008 -15.23     77.8      0.0      0.0     0.0   115.0    0.0     0.0     0.0     0.0     0.0    0   83
 103  1            1  1  0 1.0288 -12.06     32.0      0.0      0.0     0.0   115.0    0.0     0.0     0.0     0.0     0.0    0   84
 104  1            1  1  0 0.9958 -17.33      8.6      0.0      0.0     0.0   115.0    0.0     0.0     0.0     0.0     0.0    0   85
 105  1            1  1  0 1.0223 -12.94     49.6      0.0      0.0     0.0   115.0    0.0     0.0     0.0     0.0     0.0    0   86
 107  1            1  1  0 1.0095 -16.03      4.6      0.0      0.0     0.0   115.0    0.0     0.0     0.0     0.0     0.0    0   87
 108  1            1  1  2 0.9900 -20.26    112.1      0.0    117.0     0.0   115.0 0.9900    77.0   -24.0     0.0     0.0  108   88
 109  1            1  1  0 0.9749 -26.06     30.7      0.0      0.0     0.0   115.0    0.0     0.0     0.0     0.0     0.0    0   89
 110  1            1  1  0 0.9730 -24.72     63.0      0.0      0.0     0.0   115.0    0.0     0.0     0.0     0.0     0.0    0   90
 112  1            1  1  0 0.9725 -28.69     19.6      0.0      0.0     0.0   115.0    0.0     0.0     0.0     0.0     0.0    0   91
 113  1            1  1  0 0.9700 -25.38     26.2      0.0      0.0     0.0   115.0    0.0     0.0     0.0     0.0     0.0    0   92
 114  1            1  1  0 0.9747 -28.59     18.2      0.0      0.0     0.0   115.0    0.0     0.0     0.0     0.0     0.0    0   93
 115  2            1  2  0 0.9603 -13.57      0.0      0.0      0.0     0.0   115.0    0.0     0.0     0.0     0.0     0.0    0   94
 116  2            1  2  0 1.0249 -12.69      0.0      0.0      0.0     0.0   115.0    0.0     0.0     0.0     0.0     0.0    0   95
 117  2            1  2  0 0.9348  -4.72      0.0      0.0      0.0     0.0   115.0    0.0     0.0     0.0     0.0    3.25    0   96
 118  2            1  2  0 0.9298  -4.12     14.1    650.0      0.0     0.0   115.0    0.0     0.0     0.0     0.0     0.0    0   97
 119  2            1  2  2 1.0435   5.17      0.0      0.0   1930.0     0.0   115.0 1.0435  1500.0  -500.0     0.0     0.0  119   98
 120  2            1  2  0 0.9584  -8.77    777.0    215.0      0.0     0.0   115.0    0.0     0.0     0.0     0.0    0.55    0   99
 121  2            1  2  0 0.9871 -12.64    535.0     55.0      0.0     0.0   115.0    0.0     0.0     0.0     0.0     0.0    0  100
 122  2            1  2  0 0.9728 -14.36    229.1     11.8      0.0     0.0   115.0    0.0     0.0     0.0     0.0     0.0    0  101
 123  2            1  2  0 1.0006 -17.64     78.0      1.4      0.0     0.0   115.0    0.0     0.0     0.0     0.0     0.0    0  102
 124  2            1  2  2 1.0233 -13.49    276.4     59.3    240.0     0.0   115.0 1.0233   120.0   -60.0     0.0     0.0  124  103
 125  2            1  2  2 1.0103 -18.43    514.8     82.7      0.0     0.0   115.0 1.0103   200.0   -25.0     0.0     0.0  125  104
 126  2            1  2  0 0.9978 -12.86     57.9      5.1      0.0     0.0   115.0    0.0     0.0     0.0     0.0     0.0    0  105
 127  2            1  2  0 1.0001 -10.52    380.8     37.0      0.0     0.0   230.0    0.0     0.0     0.0     0.0     0.0    0  106
 128  2            1  2  0 1.0024  -4.78      0.0      0.0      0.0     0.0   230.0    0.0     0.0     0.0     0.0     0.0    0  107
 129  2            1  2  0 1.0028  -4.40      0.0      0.0      0.0     0.0   230.0    0.0     0.0     0.0     0.0     0.0    0  108
 130  2            1  2  0 1.0191   5.56      0.0      0.0      0.0     0.0   230.0    0.0     0.0     0.0     0.0     0.0    0  109
 131  2            1  2  0 0.9861   6.06      0.0      0.0      0.0     0.0   230.0    0.0     0.0     0.0     0.0     0.0    0  110
 132  2            1  2  0 1.0045   3.04      0.0      0.0      0.0     0.0   230.0    0.0     0.0     0.0     0.0     0.0    0  111
 133  2            1  2  0 1.0020  -5.46      0.0      0.0      0.0     0.0   230.0    0.0     0.0     0.0     0.0     0.0    0  112
 134  2            1  2  0 1.0220  -8.04      0.0      0.0      0.0     0.0   230.0    0.0     0.0     0.0     0.0     0.0    0  113
 135  2            1  2  0 1.0193  -6.76    169.2     41.6      0.0     0.0   230.0    0.0     0.0     0.0     0.0     0.0    0  114
 136  2            1  2  0 1.0476   1.54     55.2     18.2      0.0     0.0   230.0    0.0     0.0     0.0     0.0     0.0    0  115
 137  2            1  2  0 1.0471  -1.45    273.6     99.8      0.0     0.0   230.0    0.0     0.0     0.0     0.0     0.0    0  116
 138  2            1  2  2 1.0550  -6.35    826.7    135.2   -192.5     0.0   230.0 1.0550   350.0  -125.0     0.0     0.0  138  117
 139  2            1  2  0 1.0117  -3.57    595.0     83.3      0.0     0.0   115.0    0.0     0.0     0.0     0.0     0.0    0  118
 140  2            1  2  0 1.0430  -3.44    387.7    114.7      0.0     0.0   230.0    0.0     0.0     0.0     0.0     0.0    0  119
 141  2            1  2  2 1.0510   0.05    145.0     58.0    281.0     0.0   230.0 1.0510    75.0   -50.0     0.0     0.0  141  120
 142  2            1  2  0 1.0155  -2.77     56.5     24.5      0.0     0.0   230.0    0.0     0.0     0.0     0.0     0.0    0  121
 143  2            1  2  2 1.0435   4.03     89.5     35.5    696.0     0.0   230.0 1.0435   300.0  -100.0     0.0     0.0  143  122
 144  2            1  2  0 1.0160  -0.70      0.0      0.0      0.0     0.0   230.0    0.0     0.0     0.0     0.0     0.0    0  123
 145  2            1  2  0 1.0081  -0.16     24.0     14.0      0.0     0.0   230.0    0.0     0.0     0.0     0.0     0.0    0  124
 146  2            1  2  2 1.0528   4.32      0.0      0.0     84.0     0.0   230.0 1.0528    35.0   -15.0     0.0     0.0  146  125
 147  2            1  2  2 1.0528   8.36      0.0      0.0    217.0     0.0   230.0 1.0528   100.0   -50.0     0.0     0.0  147  126
 148  2            1  2  0 1.0577   0.28     63.0     25.0      0.0     0.0   230.0    0.0     0.0     0.0     0.0     0.0    0  127
 149  2            1  2  2 1.0735   5.23      0.0      0.0    103.0     0.0   230.0 1.0735    50.0   -25.0     0.0     0.0  149  128
 150  2            1  2  0 0.9869   6.34      0.0      0.0      0.0     0.0   230.0    0.0     0.0     0.0     0.0     0.0    0  129
 151  2            1  2  0 1.0048   4.13      0.0      0.0      0.0     0.0   230.0    0.0     0.0     0.0     0.0     0.0    0  130
 152  2            1  2  2 1.0535   9.24     17.0      9.0    372.0     0.0   230.0 1.0535   175.0   -50.0     0.0     0.0  152  131
 153  2            1  2  2 1.0435  10.46      0.0      0.0    216.0     0.0   230.0 1.0435    90.0   -50.0     0.0     0.0  153  132
 154  2            1  2  0 0.9663  -1.80     70.0      5.0      0.0     0.0   115.0    0.0     0.0     0.0     0.0   0.345    0  133
 155  2            1  2  0 1.0177   6.75    200.0     50.0      0.0     0.0   230.0    0.0     0.0     0.0     0.0     0.0    0  134
 156  2            1  2  2 0.9630   5.15     75.0     50.0      0.0     0.0   115.0 0.9630    15.0   -10.0     0.0     0.0  156  135
 157  2            1  2  0 0.9845 -11.93    123.5    -24.3      0.0     0.0   230.0    0.0     0.0     0.0     0.0     0.0    0  136
 158  2            1  2  0 0.9987 -11.40      0.0      0.0      0.0     0.0   230.0    0.0     0.0     0.0     0.0     0.0    0  137
 159  2            1  2  0 0.9867  -9.82     33.0     16.5      0.0     0.0   230.0    0.0     0.0     0.0     0.0     0.0    0  138
 160  2            1  2  0 0.9998 -12.55      0.0      0.0      0.0     0.0   230.0    0.0     0.0     0.0     0.0     0.0    0  139
 161  2            1  2  0 1.0360   8.85     35.0     15.0      0.0     0.0   230.0    0.0     0.0     0.0     0.0     0.0    0  140
 162  2            1  2  0 0.9918  18.50     85.0     24.0      0.0     0.0   230.0    0.0     0.0     0.0     0.0     0.0    0  141
 163  2            1  2  0 1.0410   2.91      0.0      0.4      0.0     0.0   230.0    0.0     0.0     0.0     0.0     0.0    0  142
 164  2            1  2  0 0.9839   9.66      0.0      0.0      0.0     0.0   230.0    0.0     0.0     0.0     0.0   -2.12    0  143
 165  2            1  2  0 1.0002  26.31      0.0      0.0      0.0     0.0   230.0    0.0     0.0     0.0     0.0     0.0    0  144
 166  2            1  2  0 0.9973  30.22      0.0      0.0      0.0     0.0   230.0    0.0     0.0     0.0     0.0   -1.03    0  145
 167  2            1  2  0 0.9715  -6.91    299.9     95.7      0.0     0.0   230.0    0.0     0.0     0.0     0.0     0.0    0  146
 168  2            1  2  0 1.0024  -4.80      0.0      0.0      0.0     0.0   230.0    0.0     0.0     0.0     0.0     0.0    0  147
 169  2            1  2  0 0.9879  -6.68      0.0      0.0      0.0     0.0   230.0    0.0     0.0     0.0     0.0     0.0    0  148
 170  2            1  2  2 0.9290   0.09    481.8    205.0    205.0     0.0   115.0 0.9290    90.0   -40.0     0.0     0.0  170  149
 171  2            1  2  2 0.9829  -9.94    763.6    291.1      0.0     0.0   115.0 0.9829   150.0   -50.0     0.0     0.0  171  150
 172  2            1  2  0 1.0244  -6.22     26.5      0.0      0.0     0.0   115.0    0.0     0.0     0.0     0.0     0.0    0  151
 173  2            1  2  0 0.9837 -12.75    163.5     43.0      0.0     0.0   115.0    0.0     0.0     0.0     0.0    0.53    0  152
 174  2            1  2  0 1.0622  -2.69      0.0      0.0      0.0     0.0   115.0    0.0     0.0     0.0     0.0     0.0    0  153
 175  2            1  2  0 0.9730  -7.21    176.0     83.0      0.0     0.0   115.0    0.0     0.0     0.0     0.0     0.0    0  154
 176  2            1  2  2 1.0522   4.67      5.0      4.0    228.0     0.0   115.0 1.0522    90.0   -45.0     0.0     0.0  176  155
 177  2            1  2  2 1.0077   0.62     28.0     12.0     84.0     0.0   115.0 1.0077    35.0   -15.0     0.0     0.0  177  156
 178  2            1  2  0 0.9397  -6.56    427.4    173.6      0.0     0.0   115.0    0.0     0.0     0.0     0.0     0.0    0  157
 179  2            1  2  0 0.9699  -9.37     74.0     29.0      0.0     0.0   115.0    0.0     0.0     0.0     0.0    0.45    0  158
 180  2            1  2  0 0.9793  -3.09     69.5     49.3      0.0     0.0   115.0    0.0     0.0     0.0     0.0     0.0    0  159
 181  2            1  2  0 1.0518  -1.33     73.4      0.0      0.0     0.0   230.0    0.0     0.0     0.0     0.0     0.0    0  160
 182  2            1  2  0 1.0447  -4.19    240.7     89.0      0.0     0.0   230.0    0.0     0.0     0.0     0.0     0.0    0  161
 183  2            1  2  0 0.9717   7.12     40.0      4.0      0.0     0.0   115.0    0.0     0.0     0.0     0.0     0.0    0  162
 184  2            1  2  0 1.0386  -6.85    136.8     16.6      0.0     0.0   230.0    0.0     0.0     0.0     0.0     0.0    0  163
 185  2            1  2  2 1.0522  -4.33      0.0      0.0    200.0     0.0   230.0 1.0522    80.0   -50.0     0.0     0.0  185  164
 186  2            1  2  2 1.0650   2.17     59.8     24.3   1200.0     0.0   230.0 1.0650   400.0  -100.0     0.0     0.0  186  165
 187  2            1  2  2 1.0650   1.40     59.8     24.3   1200.0     0.0   230.0 1.0650   400.0  -100.0     0.0     0.0  187  166
 188  2            1  2  0 1.0533  -0.72    182.6     43.6      0.0     0.0   230.0    0.0     0.0     0.0     0.0     0.0    0  167
 189  3            1  3  0 0.9975 -25.84      7.0      2.0      0.0     0.0    66.0    0.0     0.0     0.0     0.0     0.0    0  168
 190  3            1  3  2 1.0551 -20.62      0.0      0.0    475.0     0.0   345.0 1.0551   300.0  -300.0     0.0    -1.5  190  169
 191  3            1  3  2 1.0435  12.25    489.0     53.0   1973.0     0.0   230.0 1.0435  1000.0 -1000.0     0.0     0.0  191  170
 192  3            1  3  0 0.9374 -11.18    800.0     72.0      0.0     0.0   230.0    0.0     0.0     0.0     0.0     0.0    0  171
 193  3            1  3  0 0.9897 -26.09      0.0      0.0      0.0     0.0    66.0    0.0     0.0     0.0     0.0     0.0    0  172
 194  3            1  3  0 1.0489 -19.21      0.0      0.0      0.0     0.0   345.0    0.0     0.0     0.0     0.0     0.0    0  173
 195  3            1  3  0 1.0357 -20.79      0.0      0.0      0.0     0.0   345.0    0.0     0.0     0.0     0.0     0.0    0  174
 196  3            1  3  0 0.9695 -25.32     10.0      3.0      0.0     0.0   115.0    0.0     0.0     0.0     0.0     0.0    0  175
 197  3            1  3  0 0.9907 -23.72     43.0     14.0      0.0     0.0   115.0    0.0     0.0     0.0     0.0     0.0    0  176
 198  3            1  3  2 1.0150 -20.58     64.0     21.0    424.0     0.0   115.0 1.0150   260.0  -260.0     0.0     0.0  198  177
 199  3            1  3  0 0.9528 -26.05     35.0     12.0      0.0     0.0   115.0    0.0     0.0     0.0     0.0     0.0    0  178
 200  3            1  3  0 0.9550 -25.93     27.0     12.0      0.0     0.0   115.0    0.0     0.0     0.0     0.0     0.0    0  179
 201  1            1  1  0 0.9692 -27.49     41.0     14.0      0.0     0.0    66.0    0.0     0.0     0.0     0.0     0.0    0  180
 202  3            1  3  0 0.9908 -25.33     38.0     13.0      0.0     0.0    66.0    0.0     0.0     0.0     0.0     0.0    0  181
 203  3            1  3  0 1.0033 -22.35     42.0     14.0      0.0     0.0   115.0    0.0     0.0     0.0     0.0     0.0    0  182
 204  3            1  3  0 0.9718 -25.70     72.0     24.0      0.0     0.0    66.0    0.0     0.0     0.0     0.0     0.0    0  183
 205  3            1  3  0 0.9838 -26.07      0.0     -5.0      0.0     0.0    66.0    0.0     0.0     0.0     0.0     0.0    0  184
 206  3            1  3  0 0.9992 -27.41     12.0      2.0      0.0     0.0    66.0    0.0     0.0     0.0     0.0     0.0    0  185
 207  1            1  1  0 1.0137 -27.44    -21.0    -14.2      0.0     0.0    66.0    0.0     0.0     0.0     0.0     0.0    0  186
 208  3            1  3  0 0.9929 -26.28      7.0      2.0      0.0     0.0    66.0    0.0     0.0     0.0     0.0     0.0    0  187
 209  3            1  3  0 0.9999 -25.66     38.0     13.0      0.0     0.0    66.0    0.0     0.0     0.0     0.0     0.0    0  188
 210  3            1  3  0 0.9788 -24.22      0.0      0.0      0.0     0.0   115.0    0.0     0.0     0.0     0.0     0.0    0  189
 211  3            1  3  0 1.0017 -23.31     96.0      7.0      0.0     0.0   115.0    0.0     0.0     0.0     0.0     0.0    0  190
 212  3            1  3  0 1.0132 -22.51      0.0      0.0      0.0     0.0   138.0    0.0     0.0     0.0     0.0     0.0    0  191
 213  3            1  3  2 1.0100 -11.67      0.0      0.0    272.0     0.0    16.5 1.0100   150.0  -150.0     0.0     0.0  213  192
 214  3            1  3  0 0.9919 -17.53     22.0     16.0      0.0     0.0   138.0    0.0     0.0     0.0     0.0     0.0    0  193
 215  3            1  3  0 0.9866 -20.23     47.0     26.0      0.0     0.0   138.0    0.0     0.0     0.0     0.0     0.0    0  194
 216  3            1  3  0 0.9751 -22.53    176.0    105.0      0.0     0.0   138.0    0.0     0.0     0.0     0.0     0.0    0  195
 217  3            1  3  0 1.0215 -22.20    100.0     75.0      0.0     0.0   138.0    0.0     0.0     0.0     0.0     0.0    0  196
 218  3            1  3  0 1.0075 -22.63    131.0     96.0      0.0     0.0   138.0    0.0     0.0     0.0     0.0     0.0    0  197
 219  3            1  3  0 1.0554 -21.15      0.0      0.0      0.0     0.0   345.0    0.0     0.0     0.0     0.0     0.0    0  198
 220  3            1  3  2 1.0080 -21.73    285.0    100.0    100.0     0.0   138.0 1.0080    60.0   -60.0     0.0     0.0  220  199
 221  3            1  3  2 1.0000 -22.49    171.0     70.0    450.0     0.0   138.0 1.0000   320.0  -320.0     0.0     0.0  221  200
...
-999
BRANCH DATA FOLLOWS                 411 ITEMS
  37 9001  1  9 1 3   0.00006   0.00046       0.0     0     0    75    0 0  1.0082     0.0 0.9043 1.1043 0.0040     0.0   15.0     1
9001 9005  1  9 1 0    0.0008   0.00348       0.0     0     0     0    0 0     0.0     0.0    0.0    0.0    0.0     0.0    0.0     2
9001 9006  1  9 1 2   0.02439   0.43682       0.0     0     0     0 9006 0  0.9668     0.0 0.9391 1.1478 0.0042  0.9900 1.0100     3
9001 9012  1  9 1 2   0.03624   0.64898       0.0     0     0     0 9012 0  0.9796     0.0 0.9391 1.1478 0.0042  0.9900 1.0100     4
9005 9051  1  9 1 2   0.01578   0.37486       0.0     0     0     0 9051 0  1.0435     0.0 0.9391 1.1478 0.0042  0.9900 1.0100     5
9005 9052  1  9 1 2   0.01578   0.37486       0.0     0     0     0 9052 0  0.9391     0.0 0.9391 1.1478 0.0042  0.9900 1.0100     6
9005 9053  1  9 1 2   0.01602   0.38046       0.0     0     0     0 9053 0  1.0435     0.0 0.9391 1.1478 0.0042  0.9900 1.0100     7
9005 9054  1  9 1 1       0.0     0.152       0.0     0     0     0    0 0  1.0435     0.0    0.0    0.0    0.0     0.0    0.0     8
9005 9055  1  9 1 1       0.0       0.8       0.0     0     0     0    0 0  1.0435     0.0    0.0    0.0    0.0     0.0    0.0     9
9006 9007  1  9 1 0   0.05558   0.24666       0.0     0     0     0    0 0     0.0     0.0    0.0    0.0    0.0     0.0    0.0    10
9006 9003  1  9 1 0   0.11118   0.49332       0.0     0     0     0    0 0     0.0     0.0    0.0    0.0    0.0     0.0    0.0    11
9006 9003  1  9 2 0   0.11118   0.49332       0.0     0     0     0    0 0     0.0     0.0    0.0    0.0    0.0     0.0    0.0    12
9012 9002  1  9 1 0   0.07622   0.43286       0.0     0     0     0    0 0     0.0     0.0    0.0    0.0    0.0     0.0    0.0    13
9012 9002  1  9 2 0   0.07622   0.43286       0.0     0     0     0    0 0     0.0     0.0    0.0    0.0    0.0     0.0    0.0    14
9002 9021  1  9 1 0    0.0537   0.07026       0.0     0     0     0    0 0     0.0     0.0    0.0    0.0    0.0     0.0    0.0    15
9021 9023  1  9 1 0    1.1068   0.95278       0.0     0     0     0    0 0     0.0     0.0    0.0    0.0    0.0     0.0    0.0    16
9021 9022  1  9 1 1   0.44364    2.8152       0.0     0     0     0    0 0  1.0000     0.0    0.0    0.0    0.0     0.0    0.0    17
9002 9024  1  9 1 1   0.50748    3.2202       0.0     0     0     0    0 0  1.0000     0.0    0.0    0.0    0.0     0.0    0.0    18
9023 9025  1  9 1 1   0.66688     3.944       0.0     0     0     0    0 0  1.0000     0.0    0.0    0.0    0.0     0.0    0.0    19
9023 9026  1  9 1 1   0.61130    3.6152       0.0     0     0     0    0 0  1.0000     0.0    0.0    0.0    0.0     0.0    0.0    20
9007 9071  1  9 1 1   0.44120    2.9668       0.0     0     0     0    0 0  1.0000     0.0    0.0    0.0    0.0     0.0    0.0    21
9007 9072  1  9 1 1   0.30792     2.057       0.0     0     0     0    0 0  1.0000     0.0    0.0    0.0    0.0     0.0    0.0    22
9007 9003  1  9 1 0    0.0558   0.24666       0.0     0     0     0    0 0     0.0     0.0    0.0    0.0    0.0     0.0    0.0    23
9003 9031  1  9 1 1   0.73633    4.6724       0.0     0     0     0    0 0  1.0000     0.0    0.0    0.0    0.0     0.0    0.0    24
9003 9032  1  9 1 1   0.76978    4.8846       0.0     0     0     0    0 0  1.0000     0.0    0.0    0.0    0.0     0.0    0.0    25
9003 9033  1  9 1 1   0.75732    4.8056       0.0     0     0     0    0 0  1.0000     0.0    0.0    0.0    0.0     0.0    0.0    26
9003 9044  1  9 1 0   0.07378   0.06352       0.0     0     0     0    0 0     0.0     0.0    0.0    0.0    0.0     0.0    0.0    27
9044 9004  1  9 1 0   0.03832   0.02894       0.0     0     0     0    0 0     0.0     0.0    0.0    0.0    0.0     0.0    0.0    28
9004 9041  1  9 1 1   0.36614     2.456       0.0     0     0     0    0 0  1.0000     0.0    0.0    0.0    0.0     0.0    0.0    29
9004 9042  1  9 1 1   1.05930    5.4536       0.0     0     0     0    0 0  1.0000     0.0    0.0    0.0    0.0     0.0    0.0    30
9004 9043  1  9 1 1   0.15670    1.6994       0.0     0     0     0    0 0  1.0000     0.0    0.0    0.0    0.0     0.0    0.0    31
9003 9034  1  9 1 1   0.13006    1.3912       0.0     0     0     0    0 0  1.0000     0.0    0.0    0.0    0.0     0.0    0.0    32
9003 9035  1  9 1 1   0.54484    3.4572       0.0     0     0     0    0 0  1.0000     0.0    0.0    0.0    0.0     0.0    0.0    33
9003 9036  1  9 1 1   0.15426    1.6729       0.0     0     0     0    0 0  1.0000     0.0    0.0    0.0    0.0     0.0    0.0    34
9003 9037  1  9 1 1    0.3849    2.5712       0.0     0     0     0    0 0  1.0000     0.0    0.0    0.0    0.0     0.0    0.0    35
9003 9038  1  9 1 1    0.4412    2.9668       0.0     0     0     0    0 0  1.0000     0.0    0.0    0.0    0.0     0.0    0.0    36
9012 9121  1  9 1 0   0.23552   0.99036       0.0     0     0     0    0 0     0.0     0.0    0.0    0.0    0.0     0.0    0.0    37
9053 9533  1  9 1 1       0.0      0.75       0.0     0     0     0    0 0  0.9583     0.0    0.0    0.0    0.0     0.0    0.0    38
   1    5  1  1 1 0     0.001     0.006       0.0     0     0     0    0 0     0.0     0.0    0.0    0.0    0.0     0.0    0.0    39
   2    6  1  1 1 0     0.001     0.009       0.0     0     0     0    0 0     0.0     0.0    0.0    0.0    0.0     0.0    0.0    40
   2    8  1  1 1 0     0.006     0.027     0.054     0     0     0    0 0     0.0     0.0    0.0    0.0    0.0     0.0    0.0    41
   3    7  1  1 1 0       0.0     0.003       0.0     0     0     0    0 0     0.0     0.0    0.0    0.0    0.0     0.0    0.0    42
   3   19  1  1 1 0     0.008     0.069     0.139     0     0     0    0 0     0.0     0.0    0.0    0.0    0.0     0.0    0.0    43
   3  150  1  2 1 0     0.001     0.007       0.0     0     0     0    0 0     0.0     0.0    0.0    0.0    0.0     0.0    0.0    44
   4   16  1  1 1 0     0.002     0.019     1.127     0     0     0    0 0     0.0     0.0    0.0    0.0    0.0     0.0    0.0    45
   5    9  1  1 1 0     0.006     0.029     0.018     0     0     0    0 0     0.0     0.0    0.0    0.0    0.0     0.0    0.0    46
   7   12  1  1 1 0     0.001     0.009     0.070     0     0     0    0 0     0.0     0.0    0.0    0.0    0.0     0.0    0.0    47
   7  131  1  2 1 0     0.001     0.007     0.014     0     0     0    0 0     0.0     0.0    0.0    0.0    0.0     0.0    0.0    48
   8   11  1  1 1 0     0.013    0.0595     0.033     0     0     0    0 0     0.0     0.0    0.0    0.0    0.0     0.0    0.0    49
   8   14  1  1 1 0     0.013     0.042     0.081     0     0     0    0 0     0.0     0.0    0.0    0.0    0.0     0.0    0.0    50
   9   11  1  1 1 0     0.006     0.027     0.013     0     0     0    0 0     0.0     0.0    0.0    0.0    0.0     0.0    0.0    51
  11   13  1  1 1 0     0.008     0.034     0.018     0     0     0    0 0     0.0     0.0    0.0    0.0    0.0     0.0    0.0    52
  12   21  1  1 1 0     0.002     0.015     0.118     0     0     0    0 0     0.0     0.0    0.0    0.0    0.0     0.0    0.0    53
  13   20  1  1 1 0     0.006     0.034     0.016     0     0     0    0 0     0.0     0.0    0.0    0.0    0.0     0.0    0.0    54
  14   15  1  1 1 0     0.014     0.042     0.097     0     0     0    0 0     0.0     0.0    0.0    0.0    0.0     0.0    0.0    55
  15   37  1  1 1 0     0.065     0.248     0.121     0     0     0    0 0     0.0     0.0    0.0    0.0    0.0     0.0    0.0    56
  15   89  1  1 1 0     0.099     0.248     0.035     0     0     0    0 0     0.0     0.0    0.0    0.0    0.0     0.0    0.0    57
  15   90  1  1 1 0     0.096     0.363     0.048     0     0     0    0 0     0.0     0.0    0.0    0.0    0.0     0.0    0.0    58
  16   42  1  1 1 0     0.002     0.022      1.28     0     0     0    0 0     0.0     0.0    0.0    0.0    0.0     0.0    0.0    59
  19   21  1  1 1 0     0.002     0.018     0.036     0     0     0    0 0     0.0     0.0    0.0    0.0    0.0     0.0    0.0    60
  19   87  1  1 1 0     0.013      0.08     0.151     0     0     0    0 0     0.0     0.0    0.0    0.0    0.0     0.0    0.0    61
  20   22  1  1 1 0     0.016     0.033     0.015     0     0     0    0 0     0.0     0.0    0.0    0.0    0.0     0.0    0.0    62
  20   27  1  1 1 0     0.069     0.186     0.098     0     0     0    0 0     0.0     0.0    0.0    0.0    0.0     0.0    0.0    63
  21   24  1  1 1 0     0.004     0.034      0.28     0     0     0    0 0     0.0     0.0    0.0    0.0    0.0     0.0    0.0    64
  22   23  1  1 1 0     0.052     0.111      0.05     0     0     0    0 0     0.0     0.0    0.0    0.0    0.0     0.0    0.0    65
  23   25  1  1 1 0     0.019     0.039     0.018     0     0     0    0 0     0.0     0.0    0.0    0.0    0.0     0.0    0.0    66
  24  319  1  1 1 0     0.007     0.068     0.134     0     0     0    0 0     0.0     0.0    0.0    0.0    0.0     0.0    0.0    67
  25   26  1  1 1 0     0.036     0.071     0.034     0     0     0    0 0     0.0     0.0    0.0    0.0    0.0     0.0    0.0    68
  26   27  1  1 1 0     0.045      0.12     0.065     0     0     0    0 0     0.0     0.0    0.0    0.0    0.0     0.0    0.0    69
  26  320  1  1 1 0     0.043      0.13     0.014     0     0     0    0 0     0.0     0.0    0.0    0.0    0.0     0.0    0.0    70
  33   34  1  1 1 0       0.0     0.063       0.0     0     0     0    0 0     0.0     0.0    0.0    0.0    0.0     0.0    0.0    71
  33   38  1  1 1 0    0.0025     0.012     0.013     0     0     0    0 0     0.0     0.0    0.0    0.0    0.0     0.0    0.0    72
  33   40  1  1 1 0     0.006     0.029      0.02     0     0     0    0 0     0.0     0.0    0.0    0.0    0.0     0.0    0.0    73
  33   41  1  1 1 0     0.007     0.043     0.026     0     0     0    0 0     0.0     0.0    0.0    0.0    0.0     0.0    0.0    74
  34   42  1  1 1 0     0.001     0.008     0.042     0     0     0    0 0     0.0     0.0    0.0    0.0    0.0     0.0    0.0    75
  35   72  1  1 1 0     0.012      0.06     0.008     0     0     0    0 0     0.0     0.0    0.0    0.0    0.0     0.0    0.0    76
  35   76  1  1 1 0     0.006     0.014     0.002     0     0     0    0 0     0.0     0.0    0.0    0.0    0.0     0.0    0.0    77
  35   77  1  1 1 0      0.01     0.029     0.003     0     0     0    0 0     0.0     0.0    0.0    0.0    0.0     0.0    0.0    78
  36   88  1  1 1 0     0.004     0.027     0.043     0     0     0    0 0     0.0     0.0    0.0    0.0    0.0     0.0    0.0    79
  37   38  1  1 1 0     0.008     0.047     0.008     0     0     0    0 0     0.0     0.0    0.0    0.0    0.0     0.0    0.0    80
  37   40  1  1 1 0     0.022     0.064     0.007     0     0     0    0 0     0.0     0.0    0.0    0.0    0.0     0.0    0.0    81
  37   41  1  1 1 0      0.01     0.036      0.02     0     0     0    0 0     0.0     0.0    0.0    0.0    0.0     0.0    0.0    82
  37   49  1  1 1 0     0.017     0.081     0.048     0     0     0    0 0     0.0     0.0    0.0    0.0    0.0     0.0    0.0    83
  37   89  1  1 1 0     0.102     0.254     0.033     0     0     0    0 0     0.0     0.0    0.0    0.0    0.0     0.0    0.0    84
  37   90  1  1 1 0     0.047     0.127     0.016     0     0     0    0 0     0.0     0.0    0.0    0.0    0.0     0.0    0.0    85
  38   41  1  1 1 0     0.008     0.037      0.02     0     0     0    0 0     0.0     0.0    0.0    0.0    0.0     0.0    0.0    86
  38   43  1  1 1 0     0.032     0.087      0.04     0     0     0    0 0     0.0     0.0    0.0    0.0    0.0     0.0    0.0    87
  39   42  1  1 1 0    0.0006    0.0064     0.404     0     0     0    0 0     0.0     0.0    0.0    0.0    0.0     0.0    0.0    88
  40   48  1  1 1 0     0.026     0.154     0.022     0     0     0    0 0     0.0     0.0    0.0    0.0    0.0     0.0    0.0    89
  41   42  1  1 1 0       0.0     0.029       0.0     0     0     0    0 0     0.0     0.0    0.0    0.0    0.0     0.0    0.0    90
  41   49  1  1 1 0     0.065     0.191      0.02     0     0     0    0 0     0.0     0.0    0.0    0.0    0.0     0.0    0.0    91
  41   51  1  1 1 0     0.031     0.089     0.036     0     0     0    0 0     0.0     0.0    0.0    0.0    0.0     0.0    0.0    92
  42   46  1  1 1 0     0.002     0.014     0.806     0     0     0    0 0     0.0     0.0    0.0    0.0    0.0     0.0    0.0    93
  43   44  1  1 1 0     0.026     0.072     0.035     0     0     0    0 0     0.0     0.0    0.0    0.0    0.0     0.0    0.0    94
  43   48  1  1 1 0     0.095     0.262     0.032     0     0     0    0 0     0.0     0.0    0.0    0.0    0.0     0.0    0.0    95
  43   53  1  1 1 0     0.013     0.039     0.016     0     0     0    0 0     0.0     0.0    0.0    0.0    0.0     0.0    0.0    96
  44   47  1  1 1 0     0.027     0.084     0.039     0     0     0    0 0     0.0     0.0    0.0    0.0    0.0     0.0    0.0    97
  44   54  1  1 1 0     0.028     0.084     0.037     0     0     0    0 0     0.0     0.0    0.0    0.0    0.0     0.0    0.0    98
  45   60  1  1 1 0     0.007     0.041     0.312     0     0     0    0 0     0.0     0.0    0.0    0.0    0.0     0.0    0.0    99
  45   74  1  1 1 0     0.009     0.054     0.411     0     0     0    0 0     0.0     0.0    0.0    0.0    0.0     0.0    0.0   100
  46   81  1  1 1 0     0.005     0.042      0.69     0     0     0    0 0     0.0     0.0    0.0    0.0    0.0     0.0    0.0   101
  47   73  1  1 1 0     0.052     0.145     0.073     0     0     0    0 0     0.0     0.0    0.0    0.0    0.0     0.0    0.0   102
  47  113  1  1 1 0     0.043     0.118     0.013     0     0     0    0 0     0.0     0.0    0.0    0.0    0.0     0.0    0.0   103
  48  107  1  1 1 0     0.025     0.062     0.007     0     0     0    0 0     0.0     0.0    0.0    0.0    0.0     0.0    0.0   104
  49   51  1  1 1 0     0.031     0.094     0.043     0     0     0    0 0     0.0     0.0    0.0    0.0    0.0     0.0    0.0   105
  51   52  1  1 1 0     0.037     0.109     0.049     0     0     0    0 0     0.0     0.0    0.0    0.0    0.0     0.0    0.0   106
  52   55  1  1 1 0     0.027      0.08     0.036     0     0     0    0 0     0.0     0.0    0.0    0.0    0.0     0.0    0.0   107
  53   54  1  1 1 0     0.025     0.073     0.035     0     0     0    0 0     0.0     0.0    0.0    0.0    0.0     0.0    0.0   108
  54   55  1  1 1 0     0.035     0.103     0.047     0     0     0    0 0     0.0     0.0    0.0    0.0    0.0     0.0    0.0   109
  55   57  1  1 1 0     0.065     0.169     0.082     0     0     0    0 0     0.0     0.0    0.0    0.0    0.0     0.0    0.0   110
  57   58  1  1 1 0     0.046      0.08     0.036     0     0     0    0 0     0.0     0.0    0.0    0.0    0.0     0.0    0.0   111
  57   63  1  1 1 0     0.159     0.537     0.071     0     0     0    0 0     0.0     0.0    0.0    0.0    0.0     0.0    0.0   112
  58   59  1  1 1 0     0.009     0.026     0.005     0     0     0    0 0     0.0     0.0    0.0    0.0    0.0     0.0    0.0   113
  59   61  1  1 1 0     0.002     0.013     0.015     0     0     0    0 0     0.0     0.0    0.0    0.0    0.0     0.0    0.0   114
  60   62  1  1 1 0     0.009     0.065     0.485     0     0     0    0 0     0.0     0.0    0.0    0.0    0.0     0.0    0.0   115
  62   64  1  1 1 0     0.016     0.105     0.203     0     0     0    0 0     0.0     0.0    0.0    0.0    0.0     0.0    0.0   116
  62  144  1  2 1 0     0.001     0.007     0.013     0     0     0    0 0     0.0     0.0    0.0    0.0    0.0     0.0    0.0   117
  63  526  1  1 1 0    0.0265     0.172     0.026     0     0     0    0 0     0.0     0.0    0.0    0.0    0.0     0.0    0.0   118
  69  211  1  3 1 0     0.051     0.232     0.028     0     0     0    0 0     0.0     0.0    0.0    0.0    0.0     0.0    0.0   119
  69   79  1  1 1 0     0.051     0.157     0.023     0     0     0    0 0     0.0     0.0    0.0    0.0    0.0     0.0    0.0   120
  70   71  1  1 1 0     0.032       0.1     0.062     0     0     0    0 0     0.0     0.0    0.0    0.0    0.0     0.0    0.0   121
  70  528  1  1 1 0      0.02    0.1234     0.028     0     0     0    0 0     0.0     0.0    0.0    0.0    0.0     0.0    0.0   122
  71   72  1  1 1 0     0.036     0.131     0.068     0     0     0    0 0     0.0     0.0    0.0    0.0    0.0     0.0    0.0   123
  71   73  1  1 1 0     0.034     0.099     0.047     0     0     0    0 0     0.0     0.0    0.0    0.0    0.0     0.0    0.0   124
  72   77  1  1 1 0     0.018     0.087     0.011     0     0     0    0 0     0.0     0.0    0.0    0.0    0.0     0.0    0.0   125
  72  531  1  1 1 0    0.0256     0.193       0.0     0     0     0    0 0     0.0     0.0    0.0    0.0    0.0     0.0    0.0   126
  73   76  1  1 1 0     0.021     0.057      0.03     0     0     0    0 0     0.0     0.0    0.0    0.0    0.0     0.0    0.0   127
  73   79  1  1 1 0     0.018     0.052     0.018     0     0     0    0 0     0.0     0.0    0.0    0.0    0.0     0.0    0.0   128
  74   88  1  1 1 0     0.004     0.027      0.05     0     0     0    0 0     0.0     0.0    0.0    0.0    0.0     0.0    0.0   129
  74  562  1  1 1 0    0.0286    0.2013     0.379     0     0     0    0 0     0.0     0.0    0.0    0.0    0.0     0.0    0.0   130
  76   77  1  1 1 0     0.016     0.043     0.004     0     0     0    0 0     0.0     0.0    0.0    0.0    0.0     0.0    0.0   131
  77   78  1  1 1 0     0.001     0.006     0.007     0     0     0    0 0     0.0     0.0    0.0    0.0    0.0     0.0    0.0   132
  77   80  1  1 1 0     0.014      0.07     0.038     0     0     0    0 0     0.0     0.0    0.0    0.0    0.0     0.0    0.0   133
  77  552  1  1 1 0    0.0891    0.2676     0.029     0     0     0    0 0     0.0     0.0    0.0    0.0    0.0     0.0    0.0   134
  77  609  1  1 1 0    0.0782    0.2127     0.022     0     0     0    0 0     0.0     0.0    0.0    0.0    0.0     0.0    0.0   135
  78   79  1  1 1 0     0.006     0.022     0.011     0     0     0    0 0     0.0     0.0    0.0    0.0    0.0     0.0    0.0   136
  78   84  1  1 1 0       0.0     0.036       0.0     0     0     0    0 0     0.0     0.0    0.0    0.0    0.0     0.0    0.0   137
  79  211  1  3 1 0     0.099     0.375     0.051     0     0     0    0 0     0.0     0.0    0.0    0.0    0.0     0.0    0.0   138
  80  211  1  3 1 0     0.022     0.107     0.058     0     0     0    0 0     0.0     0.0    0.0    0.0    0.0     0.0    0.0   139
  81  194  1  3 1 0    0.0035     0.033      0.53     0     0     0    0 0     0.0     0.0    0.0    0.0    0.0     0.0    0.0   140
  81  195  1  3 1 0    0.0035     0.033      0.53     0     0     0    0 0     0.0     0.0    0.0    0.0    0.0     0.0    0.0   141
  85   86  1  1 1 0     0.008     0.064     0.128     0     0     0    0 0     0.0     0.0    0.0    0.0    0.0     0.0    0.0   142
  86   87  1  1 1 0     0.012     0.093     0.183     0     0     0    0 0     0.0     0.0    0.0    0.0    0.0     0.0    0.0   143
  86  323  1  1 1 0     0.006     0.048     0.092     0     0     0    0 0     0.0     0.0    0.0    0.0    0.0     0.0    0.0   144
  89   91  1  1 1 0     0.047     0.119     0.014     0     0     0    0 0     0.0     0.0    0.0    0.0    0.0     0.0    0.0   145
  90   92  1  1 1 0     0.032     0.174     0.024     0     0     0    0 0     0.0     0.0    0.0    0.0    0.0     0.0    0.0   146
  91   94  1  1 1 0       0.1     0.253     0.031     0     0     0    0 0     0.0     0.0    0.0    0.0    0.0     0.0    0.0   147
  91   97  1  1 1 0     0.022     0.077     0.039     0     0     0    0 0     0.0     0.0    0.0    0.0    0.0     0.0    0.0   148
  92  103  1  1 1 0     0.019     0.144     0.017     0     0     0    0 0     0.0     0.0    0.0    0.0    0.0     0.0    0.0   149
  92  105  1  1 1 0     0.017     0.092     0.012     0     0     0    0 0     0.0     0.0    0.0    0.0    0.0     0.0    0.0   150
  94   97  1  1 1 0     0.278     0.427     0.043     0     0     0    0 0     0.0     0.0    0.0    0.0    0.0     0.0    0.0   151
  97  100  1  1 1 0     0.022     0.053     0.007     0     0     0    0 0     0.0     0.0    0.0    0.0    0.0     0.0    0.0   152
  97  102  1  1 1 0     0.038     0.092     0.012     0     0     0    0 0     0.0     0.0    0.0    0.0    0.0     0.0    0.0   153
  97  103  1  1 1 0     0.048     0.122     0.015     0     0     0    0 0     0.0     0.0    0.0    0.0    0.0     0.0    0.0   154
  98  100  1  1 1 0     0.024     0.064     0.007     0     0     0    0 0     0.0     0.0    0.0    0.0    0.0     0.0    0.0   155
  98  102  1  1 1 0     0.034     0.121     0.015     0     0     0    0 0     0.0     0.0    0.0    0.0    0.0     0.0    0.0   156
  99  107  1  1 1 0     0.053     0.135     0.017     0     0     0    0 0     0.0     0.0    0.0    0.0    0.0     0.0    0.0   157
  99  108  1  1 1 0     0.002     0.004     0.002     0     0     0    0 0     0.0     0.0    0.0    0.0    0.0     0.0    0.0   158
  99  109  1  1 1 0     0.045     0.354     0.044     0     0     0    0 0     0.0     0.0    0.0    0.0    0.0     0.0    0.0   159
  99  110  1  1 1 0      0.05     0.174     0.022     0     0     0    0 0     0.0     0.0    0.0    0.0    0.0     0.0    0.0   160
 100  102  1  1 1 0     0.016     0.038     0.004     0     0     0    0 0     0.0     0.0    0.0    0.0    0.0     0.0    0.0   161
 102  104  1  1 1 0     0.043     0.064     0.027     0     0     0    0 0     0.0     0.0    0.0    0.0    0.0     0.0    0.0   162
 103  105  1  1 1 0     0.019     0.062     0.008     0     0     0    0 0     0.0     0.0    0.0    0.0    0.0     0.0    0.0   163
 104  108  1  1 1 0     0.076      0.13     0.044     0     0     0    0 0     0.0     0.0    0.0    0.0    0.0     0.0    0.0   164
 104  322  1  1 1 0     0.044     0.124     0.015     0     0     0    0 0     0.0     0.0    0.0    0.0    0.0     0.0    0.0   165
 105  107  1  1 1 0     0.012     0.088     0.011     0     0     0    0 0     0.0     0.0    0.0    0.0    0.0     0.0    0.0   166
 105  110  1  1 1 0     0.157       0.4     0.047     0     0     0    0 0     0.0     0.0    0.0    0.0    0.0     0.0    0.0   167
 108  324  1  1 1 0     0.074     0.208     0.026     0     0     0    0 0     0.0     0.0    0.0    0.0    0.0     0.0    0.0   168
 109  110  1  1 1 0      0.07     0.184     0.021     0     0     0    0 0     0.0     0.0    0.0    0.0    0.0     0.0    0.0   169
 109  113  1  1 1 0       0.1     0.274     0.031     0     0     0    0 0     0.0     0.0    0.0    0.0    0.0     0.0    0.0   170
 109  114  1  1 1 0     0.109     0.393     0.036     0     0     0    0 0     0.0     0.0    0.0    0.0    0.0     0.0    0.0   171
 110  112  1  1 1 0     0.142     0.404      0.05     0     0     0    0 0     0.0     0.0    0.0    0.0    0.0     0.0    0.0   172
 112  114  1  1 1 0     0.017     0.042     0.006     0     0     0    0 0     0.0     0.0    0.0    0.0    0.0     0.0    0.0   173
 115  122  1  2 1 0    0.0036    0.0199     0.004     0     0     0    0 0     0.0     0.0    0.0    0.0    0.0     0.0    0.0   174
 116  120  1  2 1 0     0.002    0.1049     0.001     0     0     0    0 0     0.0     0.0    0.0    0.0    0.0     0.0    0.0   175
 117  118  1  2 1 0    0.0001    0.0018     0.017     0     0     0    0 0     0.0     0.0    0.0    0.0    0.0     0.0    0.0   176
 118  119  1  2 1 0       0.0    0.0271       0.0     0     0     0    0 0     0.0     0.0    0.0    0.0    0.0     0.0    0.0   177
 118 1201  1  2 1 0       0.0    0.6163       0.0     0     0     0    0 0     0.0     0.0    0.0    0.0    0.0     0.0    0.0   178
1201  120  1  2 1 0       0.0   -0.3697       0.0     0     0     0    0 0     0.0     0.0    0.0    0.0    0.0     0.0    0.0   179
 118  121  1  2 1 0    0.0022    0.2915       0.0     0     0     0    0 0     0.0     0.0    0.0    0.0    0.0     0.0    0.0   180
 119  120  1  2 1 0       0.0    0.0339       0.0     0     0     0    0 0     0.0     0.0    0.0    0.0    0.0     0.0    0.0   181
 119  121  1  2 1 0       0.0    0.0582       0.0     0     0     0    0 0     0.0     0.0    0.0    0.0    0.0     0.0    0.0   182
 122  123  1  2 1 0    0.0808    0.2344     0.029     0     0     0    0 0     0.0     0.0    0.0    0.0    0.0     0.0    0.0   183
 122  125  1  2 1 0    0.0965    0.3669     0.054     0     0     0    0 0     0.0     0.0    0.0    0.0    0.0     0.0    0.0   184
 123  124  1  2 1 0     0.036    0.1076     0.117     0     0     0    0 0     0.0     0.0    0.0    0.0    0.0     0.0    0.0   185
 123  125  1  2 1 0    0.0476    0.1414     0.149     0     0     0    0 0     0.0     0.0    0.0    0.0    0.0     0.0    0.0   186
 125  126  1  2 1 0    0.0006    0.0197       0.0     0     0     0    0 0     0.0     0.0    0.0    0.0    0.0     0.0    0.0   187
 126  127  1  2 1 0    0.0059    0.0405     0.250     0     0     0    0 0     0.0     0.0    0.0    0.0    0.0     0.0    0.0   188
 126  129  1  2 1 0    0.0115    0.1106     0.185     0     0     0    0 0     0.0     0.0    0.0    0.0    0.0     0.0    0.0   189
 126  132  1  2 1 0    0.0198    0.1688     0.321     0     0     0    0 0     0.0     0.0    0.0    0.0    0.0     0.0    0.0   190
 126  157  1  2 1 0     0.005      0.05      0.33     0     0     0    0 0     0.0     0.0    0.0    0.0    0.0     0.0    0.0   191
 126  158  1  2 1 0    0.0077    0.0538     0.335     0     0     0    0 0     0.0     0.0    0.0    0.0    0.0     0.0    0.0   192
 126  169  1  2 1 0    0.0165    0.1157     0.171     0     0     0    0 0     0.0     0.0    0.0    0.0    0.0     0.0    0.0   193
 127  128  1  2 1 0    0.0059    0.0577     0.095     0     0     0    0 0     0.0     0.0    0.0    0.0    0.0     0.0    0.0   194
 127  134  1  2 1 0    0.0049    0.0336     0.208     0     0     0    0 0     0.0     0.0    0.0    0.0    0.0     0.0    0.0   195
 127  168  1  2 1 0    0.0059    0.0577     0.095     0     0     0    0 0     0.0     0.0    0.0    0.0    0.0     0.0    0.0   196
 128  130  1  2 1 0    0.0078    0.0773     0.126     0     0     0    0 0     0.0     0.0    0.0    0.0    0.0     0.0    0.0   197
 128  133  1  2 1 0    0.0026    0.0193      0.03     0     0     0    0 0     0.0     0.0    0.0    0.0    0.0     0.0    0.0   198
 129  130  1  2 1 0    0.0076    0.0752     0.122     0     0     0    0 0     0.0     0.0    0.0    0.0    0.0     0.0    0.0   199
 129  133  1  2 1 0    0.0021    0.0186      0.03     0     0     0    0 0     0.0     0.0    0.0    0.0    0.0     0.0    0.0   200
...
-999
LOSS ZONES FOLLOWS                    4 ITEMS
  1 IEEE 300-BUS - SYSTEM 1
  2 IEEE 300-BUS - SYSTEM 2
  3 IEEE 300-BUS - SYSTEM 3
  9 IEEE 300-BUS - SYSTEM 9
-99
INTERCHANGE DATA FOLLOWS              0 ITEMS
-9
TIE LINES FOLLOWS                     0 ITEMS
-999
END OF DATA